tests/data/state_estimation/link-after-3w-trafo/asym_output.json
{
  "version": "1.0",
  "type": "asym_output",
  "is_batch": false,
  "attributes": {},
  "data": {
    "node": [
      {"id": 30, "energized": 1, "u_pu": [0.99999227452315975, 0.99999227452315931, 0.9999922745231592], "u": [230.93832355339697, 230.93832355339686, 230.93832355339683], "u_angle": [-1.803522228121872e-05, -2.0944131376154771, 2.0943770671715463], "p": [0, 0, 0], "q": [0, 0, 0]},
      {"id": 90, "energized": 1, "u_pu": [0.9999973292017923, 0.99999732920179207, 0.99999732920179207], "u": [5773.4872720356161, 5773.4872720356143, 5773.4872720356143], "u_angle": [0, -2.0943951023931957, 2.0943951023938276], "p": [393.33054813389566, 393.33054813643804, 393.33054813568168], "q": [0.0046688643710687131, 0.004668863572028119, 0.0046688649524033801]},
      {"id": 112, "energized": 1, "u_pu": [0.99999227452315975, 0.99999227452315931, 0.9999922745231592], "u": [230.93832355339697, 230.93832355339686, 230.93832355339683], "u_angle": [-1.8035222281232685e-05, -2.0944131376154771, 2.0943770671715463], "p": [0, 0, 0], "q": [0, 0, 0]},
      {"id": 113, "energized": 0, "u_pu": [0, 0, 0], "u": [0, 0, 0], "u_angle": [0, 0, 0], "p": [0, 0, 0], "q": [0, 0, 0]}
    ],
    "source": [
      {"id": 207, "energized": 1, "p": [393.33054813389566, 393.33054813643804, 393.33054813568168], "q": [0.0046688643710687131, 0.004668863572028119, 0.0046688649524033801], "i": [0.068127031312034944, 0.068127031312475314, 0.068127031312344308], "s": [393.33054816160552, 393.3305481641479, 393.3305481633916], "pf": [0.99999999992955069, 0.99999999992955069, 0.99999999992955058]}
    ],
    "three_winding_transformer": [
      {"id": 208, "energized": 1, "loading_1": 0.0018730026103002302, "loading_2": 5.5427905621725639e-09, "loading_3": 0, "loading": 0.0018730026103002302, "p_1": [393.33054813389566, 393.33054813643804, 393.33054813568168], "q_1": [0.0046688643710687131, 0.0046688635720132377, 0.0046688649524146055], "i_1": [0.068127031312034944, 0.0681270313124753, 0.068127031312344308], "s_1": [393.33054816160552, 393.3305481641479, 393.3305481633916], "p_2": [-0.00030993822623748312, -0.00030993996651976756, -0.00030994097339711034], "q_2": [-0.0011219611440573157, -0.0011219635549256047, -0.0011219640945336674], "i_2": [5.040237060935884e-06, 5.0402491300527741e-06, 5.040252543227171e-06], "s_2": [0.0011639838971642337, 0.0011639866843858545, 0.0011639874726186276], "p_3": [0, 0, 0], "q_3": [0, 0, 0], "i_3": [0, 0, 0], "s_3": [0, 0, 0]}
    ],
    "link": [
      {"id": 229, "energized": 1, "loading": 0, "p_from": [0, 0, 0], "q_from": [0, 0, 0], "i_from": [0, 0, 0], "s_from": [0, 0, 0], "p_to": [0, 0, 0], "q_to": [0, 0, 0], "i_to": [0, 0, 0], "s_to": [0, 0, 0]}
    ],
    "asym_voltage_sensor": [
      {"id": 329, "energized": 1, "u_residual": [0.0017864466030591628, 0.0017864466031617208, 0.0017864466031873604]}
    ],
    "asym_power_sensor": [
      {"id": 466, "energized": 1, "p_residual": [-393.33054813389566, -393.33054813643804, -393.33054813568168], "q_residual": [-0.0046688643710687131, -0.0046688635720132377, -0.0046688649524146055]}
    ]
  }
}